I"Ú/Users/eric/Google%20Drive/Flatiron/labs/rails/rails-dynamic-request-readme-web-1116/app/assets/javascripts/application.js?type=application/javascript&id=6b656588093021ad5a5466d736f9f55c2a4de7f318c9d2e8da179341ff16271d:ET