I"æ/Users/eric/Google%20Drive/Flatiron/labs/rails/rails-dynamic-request-readme-web-1116/app/assets/javascripts/posts.coffee?type=application/javascript&pipeline=self&id=69c17f9f8a6d94f65b2f88ef1e9dfba0fad6ce6da86e667921b228b44169c06c:ET