I"Ö/Users/eric/Google%20Drive/Flatiron/labs/rails/rails-dynamic-request-readme-web-1116/app/assets/stylesheets/posts.scss?type=text/css&pipeline=self&id=2d6d61f7292b84c8c8b8ec3563d6a5daa9b479098aa109bd89fd2e4f73857307:ET