I"Í/Users/eric/Google%20Drive/Flatiron/labs/rails/rails-dynamic-request-readme-web-1116/app/assets/stylesheets/application.css?type=text/css&id=24877ba9e1ca8376fb7237e8e891e279615326c542dec460101af07d2a7daec0:ET