I"è/Users/eric/Google%20Drive/Flatiron/labs/rails/rails-dynamic-request-readme-web-1116/app/assets/javascripts/application.js?type=application/javascript&pipeline=self&id=6a7f011828a41126465404231d3b2553a4572fcc766fc8dc0c44092d1983b34c:ET