I"Û/Users/eric/Google%20Drive/Flatiron/labs/rails/rails-dynamic-request-readme-web-1116/app/assets/stylesheets/application.css?type=text/css&pipeline=self&id=8d09531f1e023da24032c7431e10ebc5f25205986a3379044c50acc917aa9825:ET