[o:Set:
@hash}	I"environment-version:ETTI"environment-paths;TTI"Lprocessors:type=text/css&file_type=text/css&engines=.scss&pipeline=self;TTI"„file-digest:///Users/eric/Google%20Drive/Flatiron/labs/rails/rails-dynamic-request-readme-web-1116/app/assets/stylesheets/posts.scss;TTF