[o:Set:
@hash}	I"environment-version:ETTI"environment-paths;TTI"jprocessors:type=application/javascript&file_type=application/javascript&engines=.coffee&pipeline=self;TTI"†file-digest:///Users/eric/Google%20Drive/Flatiron/labs/rails/rails-dynamic-request-readme-web-1116/app/assets/javascripts/posts.coffee;TTF